<?xml version="1.0" encoding="UTF-8"?>

<!-- generated on Wed Oct 21 13:41:37 2020 by Eclipse SUMO netedit Version 1.7.0
<configuration xmlns:xsi="http://www.w3.org/2001/XMLSchema-instance" xsi:noNamespaceSchemaLocation="http://sumo.dlr.de/xsd/netconvertConfiguration.xsd">

    <input>
        <sumo-net-file value="quadintersection/quad.net.xml"/>
    </input>

    <output>
        <output-file value="quadintersection/quad.net.xml"/>
    </output>

    <processing>
        <geometry.min-radius.fix.railways value="false"/>
        <geometry.max-grade.fix value="false"/>
        <offset.disable-normalization value="true"/>
        <lefthand value="false"/>
    </processing>

    <junctions>
        <no-turnarounds value="true"/>
        <junctions.corner-detail value="5"/>
        <junctions.limit-turn-speed value="5.5"/>
        <rectangular-lane-cut value="false"/>
    </junctions>

    <pedestrian>
        <walkingareas value="false"/>
    </pedestrian>

    <report>
        <aggregate-warnings value="5"/>
    </report>

</configuration>
-->

<net version="1.6" junctionCornerDetail="5" limitTurnSpeed="5.50" xmlns:xsi="http://www.w3.org/2001/XMLSchema-instance" xsi:noNamespaceSchemaLocation="http://sumo.dlr.de/xsd/net_file.xsd">

    <location netOffset="0.00,0.00" convBoundary="-200.00,0.00,200.00,400.00" origBoundary="-10000000000.00,-10000000000.00,10000000000.00,10000000000.00" projParameter="!"/>

    <edge id=":junction_ne_0" function="internal">
        <lane id=":junction_ne_0_0" index="0" allow="bicycle" speed="5.04" length="5.00" shape="92.00,311.10 91.81,309.74 91.22,308.77 90.26,308.19 88.90,308.00"/>
    </edge>
    <edge id=":junction_ne_1" function="internal">
        <lane id=":junction_ne_1_0" index="0" allow="bicycle" speed="13.89" length="22.20" shape="92.00,311.10 92.00,288.90"/>
    </edge>
    <edge id=":junction_ne_2" function="internal">
        <lane id=":junction_ne_2_0" index="0" allow="bicycle" speed="11.57" length="0.32" shape="92.00,311.10 92.05,310.78"/>
    </edge>
    <edge id=":junction_ne_3" function="internal">
        <lane id=":junction_ne_3_0" index="0" speed="6.86" length="10.16" shape="95.20,311.10 94.81,308.34 93.62,306.38 91.66,305.19 88.90,304.80"/>
    </edge>
    <edge id=":junction_ne_4" function="internal">
        <lane id=":junction_ne_4_0" index="0" speed="13.89" length="22.20" shape="95.20,311.10 95.20,288.90"/>
        <lane id=":junction_ne_4_1" index="1" speed="13.89" length="22.20" shape="98.40,311.10 98.40,288.90"/>
    </edge>
    <edge id=":junction_ne_6" function="internal">
        <lane id=":junction_ne_6_0" index="0" speed="9.51" length="1.38" shape="98.40,311.10 98.60,309.73"/>
    </edge>
    <edge id=":junction_ne_28" function="internal">
        <lane id=":junction_ne_28_0" index="0" allow="bicycle" speed="11.57" length="30.48" shape="92.05,310.78 93.19,302.74 96.78,296.77 102.74,293.19 111.10,292.00"/>
    </edge>
    <edge id=":junction_ne_29" function="internal">
        <lane id=":junction_ne_29_0" index="0" speed="9.51" length="19.10" shape="98.60,309.73 99.19,305.54 101.58,301.57 105.54,299.19 111.10,298.40"/>
    </edge>
    <edge id=":junction_ne_7" function="internal">
        <lane id=":junction_ne_7_0" index="0" allow="bicycle" speed="5.04" length="5.00" shape="111.10,308.00 109.74,308.19 108.77,308.77 108.19,309.74 108.00,311.10"/>
    </edge>
    <edge id=":junction_ne_8" function="internal">
        <lane id=":junction_ne_8_0" index="0" allow="bicycle" speed="13.89" length="22.20" shape="111.10,308.00 88.90,308.00"/>
    </edge>
    <edge id=":junction_ne_9" function="internal">
        <lane id=":junction_ne_9_0" index="0" allow="bicycle" speed="11.57" length="19.16" shape="111.10,308.00 102.74,306.81 96.78,303.23 94.84,300.00"/>
    </edge>
    <edge id=":junction_ne_10" function="internal">
        <lane id=":junction_ne_10_0" index="0" speed="6.86" length="10.16" shape="111.10,304.80 108.34,305.19 106.38,306.38 105.19,308.34 104.80,311.10"/>
    </edge>
    <edge id=":junction_ne_11" function="internal">
        <lane id=":junction_ne_11_0" index="0" speed="13.89" length="22.20" shape="111.10,304.80 88.90,304.80"/>
        <lane id=":junction_ne_11_1" index="1" speed="13.89" length="22.20" shape="111.10,301.60 88.90,301.60"/>
    </edge>
    <edge id=":junction_ne_13" function="internal">
        <lane id=":junction_ne_13_0" index="0" speed="9.51" length="7.18" shape="111.10,301.60 105.54,300.81 104.20,300.00"/>
    </edge>
    <edge id=":junction_ne_30" function="internal">
        <lane id=":junction_ne_30_0" index="0" allow="bicycle" speed="11.57" length="11.64" shape="94.84,300.00 93.19,297.26 92.00,288.90"/>
    </edge>
    <edge id=":junction_ne_31" function="internal">
        <lane id=":junction_ne_31_0" index="0" speed="9.51" length="13.30" shape="104.20,300.00 101.57,298.43 99.19,294.46 98.40,288.90"/>
    </edge>
    <edge id=":junction_ne_14" function="internal">
        <lane id=":junction_ne_14_0" index="0" allow="bicycle" speed="5.04" length="5.00" shape="108.00,288.90 108.19,290.26 108.78,291.23 109.74,291.81 111.10,292.00"/>
    </edge>
    <edge id=":junction_ne_15" function="internal">
        <lane id=":junction_ne_15_0" index="0" allow="bicycle" speed="13.89" length="22.20" shape="108.00,288.90 108.00,311.10"/>
    </edge>
    <edge id=":junction_ne_16" function="internal">
        <lane id=":junction_ne_16_0" index="0" allow="bicycle" speed="11.57" length="0.32" shape="108.00,288.90 107.95,289.22"/>
    </edge>
    <edge id=":junction_ne_17" function="internal">
        <lane id=":junction_ne_17_0" index="0" speed="6.86" length="10.16" shape="104.80,288.90 105.19,291.66 106.38,293.62 108.34,294.81 111.10,295.20"/>
    </edge>
    <edge id=":junction_ne_18" function="internal">
        <lane id=":junction_ne_18_0" index="0" speed="13.89" length="22.20" shape="104.80,288.90 104.80,311.10"/>
        <lane id=":junction_ne_18_1" index="1" speed="13.89" length="22.20" shape="101.60,288.90 101.60,311.10"/>
    </edge>
    <edge id=":junction_ne_20" function="internal">
        <lane id=":junction_ne_20_0" index="0" speed="9.51" length="1.38" shape="101.60,288.90 101.40,290.27"/>
    </edge>
    <edge id=":junction_ne_32" function="internal">
        <lane id=":junction_ne_32_0" index="0" allow="bicycle" speed="11.57" length="30.48" shape="107.95,289.22 106.81,297.26 103.22,303.23 97.26,306.81 88.90,308.00"/>
    </edge>
    <edge id=":junction_ne_33" function="internal">
        <lane id=":junction_ne_33_0" index="0" speed="9.51" length="19.10" shape="101.40,290.27 100.81,294.46 98.42,298.43 94.46,300.81 88.90,301.60"/>
    </edge>
    <edge id=":junction_ne_21" function="internal">
        <lane id=":junction_ne_21_0" index="0" allow="bicycle" speed="5.04" length="5.00" shape="88.90,292.00 90.26,291.81 91.23,291.23 91.81,290.26 92.00,288.90"/>
    </edge>
    <edge id=":junction_ne_22" function="internal">
        <lane id=":junction_ne_22_0" index="0" allow="bicycle" speed="13.89" length="22.20" shape="88.90,292.00 111.10,292.00"/>
    </edge>
    <edge id=":junction_ne_23" function="internal">
        <lane id=":junction_ne_23_0" index="0" allow="bicycle" speed="11.57" length="19.16" shape="88.90,292.00 97.26,293.19 103.22,296.77 105.16,300.00"/>
    </edge>
    <edge id=":junction_ne_24" function="internal">
        <lane id=":junction_ne_24_0" index="0" speed="6.86" length="10.16" shape="88.90,295.20 91.66,294.81 93.62,293.62 94.81,291.66 95.20,288.90"/>
    </edge>
    <edge id=":junction_ne_25" function="internal">
        <lane id=":junction_ne_25_0" index="0" speed="13.89" length="22.20" shape="88.90,295.20 111.10,295.20"/>
        <lane id=":junction_ne_25_1" index="1" speed="13.89" length="22.20" shape="88.90,298.40 111.10,298.40"/>
    </edge>
    <edge id=":junction_ne_27" function="internal">
        <lane id=":junction_ne_27_0" index="0" speed="9.51" length="7.18" shape="88.90,298.40 94.46,299.19 95.80,300.00"/>
    </edge>
    <edge id=":junction_ne_34" function="internal">
        <lane id=":junction_ne_34_0" index="0" allow="bicycle" speed="11.57" length="11.64" shape="105.16,300.00 106.81,302.74 108.00,311.10"/>
    </edge>
    <edge id=":junction_ne_35" function="internal">
        <lane id=":junction_ne_35_0" index="0" speed="9.51" length="13.30" shape="95.80,300.00 98.43,301.57 100.81,305.54 101.60,311.10"/>
    </edge>
    <edge id=":junction_nw_0" function="internal">
        <lane id=":junction_nw_0_0" index="0" allow="bicycle" speed="5.04" length="5.00" shape="-108.00,311.10 -108.19,309.74 -108.78,308.77 -109.74,308.19 -111.10,308.00"/>
    </edge>
    <edge id=":junction_nw_1" function="internal">
        <lane id=":junction_nw_1_0" index="0" allow="bicycle" speed="13.89" length="22.20" shape="-108.00,311.10 -108.00,288.90"/>
    </edge>
    <edge id=":junction_nw_2" function="internal">
        <lane id=":junction_nw_2_0" index="0" allow="bicycle" speed="11.57" length="0.32" shape="-108.00,311.10 -107.95,310.78"/>
    </edge>
    <edge id=":junction_nw_3" function="internal">
        <lane id=":junction_nw_3_0" index="0" speed="6.86" length="10.16" shape="-104.80,311.10 -105.19,308.34 -106.38,306.38 -108.34,305.19 -111.10,304.80"/>
    </edge>
    <edge id=":junction_nw_4" function="internal">
        <lane id=":junction_nw_4_0" index="0" speed="13.89" length="22.20" shape="-104.80,311.10 -104.80,288.90"/>
        <lane id=":junction_nw_4_1" index="1" speed="13.89" length="22.20" shape="-101.60,311.10 -101.60,288.90"/>
    </edge>
    <edge id=":junction_nw_6" function="internal">
        <lane id=":junction_nw_6_0" index="0" speed="9.51" length="1.38" shape="-101.60,311.10 -101.40,309.73"/>
    </edge>
    <edge id=":junction_nw_28" function="internal">
        <lane id=":junction_nw_28_0" index="0" allow="bicycle" speed="11.57" length="30.48" shape="-107.95,310.78 -106.81,302.74 -103.22,296.77 -97.26,293.19 -88.90,292.00"/>
    </edge>
    <edge id=":junction_nw_29" function="internal">
        <lane id=":junction_nw_29_0" index="0" speed="9.51" length="19.10" shape="-101.40,309.73 -100.81,305.54 -98.42,301.57 -94.46,299.19 -88.90,298.40"/>
    </edge>
    <edge id=":junction_nw_7" function="internal">
        <lane id=":junction_nw_7_0" index="0" allow="bicycle" speed="5.04" length="5.00" shape="-88.90,308.00 -90.26,308.19 -91.23,308.77 -91.81,309.74 -92.00,311.10"/>
    </edge>
    <edge id=":junction_nw_8" function="internal">
        <lane id=":junction_nw_8_0" index="0" allow="bicycle" speed="13.89" length="22.20" shape="-88.90,308.00 -111.10,308.00"/>
    </edge>
    <edge id=":junction_nw_9" function="internal">
        <lane id=":junction_nw_9_0" index="0" allow="bicycle" speed="11.57" length="19.16" shape="-88.90,308.00 -97.26,306.81 -103.22,303.23 -105.16,300.00"/>
    </edge>
    <edge id=":junction_nw_10" function="internal">
        <lane id=":junction_nw_10_0" index="0" speed="6.86" length="10.16" shape="-88.90,304.80 -91.66,305.19 -93.62,306.38 -94.81,308.34 -95.20,311.10"/>
    </edge>
    <edge id=":junction_nw_11" function="internal">
        <lane id=":junction_nw_11_0" index="0" speed="13.89" length="22.20" shape="-88.90,304.80 -111.10,304.80"/>
        <lane id=":junction_nw_11_1" index="1" speed="13.89" length="22.20" shape="-88.90,301.60 -111.10,301.60"/>
    </edge>
    <edge id=":junction_nw_13" function="internal">
        <lane id=":junction_nw_13_0" index="0" speed="9.51" length="7.18" shape="-88.90,301.60 -94.46,300.81 -95.80,300.00"/>
    </edge>
    <edge id=":junction_nw_30" function="internal">
        <lane id=":junction_nw_30_0" index="0" allow="bicycle" speed="11.57" length="11.64" shape="-105.16,300.00 -106.81,297.26 -108.00,288.90"/>
    </edge>
    <edge id=":junction_nw_31" function="internal">
        <lane id=":junction_nw_31_0" index="0" speed="9.51" length="13.30" shape="-95.80,300.00 -98.43,298.43 -100.81,294.46 -101.60,288.90"/>
    </edge>
    <edge id=":junction_nw_14" function="internal">
        <lane id=":junction_nw_14_0" index="0" allow="bicycle" speed="5.04" length="5.00" shape="-92.00,288.90 -91.81,290.26 -91.22,291.23 -90.26,291.81 -88.90,292.00"/>
    </edge>
    <edge id=":junction_nw_15" function="internal">
        <lane id=":junction_nw_15_0" index="0" allow="bicycle" speed="13.89" length="22.20" shape="-92.00,288.90 -92.00,311.10"/>
    </edge>
    <edge id=":junction_nw_16" function="internal">
        <lane id=":junction_nw_16_0" index="0" allow="bicycle" speed="11.57" length="0.32" shape="-92.00,288.90 -92.05,289.22"/>
    </edge>
    <edge id=":junction_nw_17" function="internal">
        <lane id=":junction_nw_17_0" index="0" speed="6.86" length="10.16" shape="-95.20,288.90 -94.81,291.66 -93.62,293.62 -91.66,294.81 -88.90,295.20"/>
    </edge>
    <edge id=":junction_nw_18" function="internal">
        <lane id=":junction_nw_18_0" index="0" speed="13.89" length="22.20" shape="-95.20,288.90 -95.20,311.10"/>
        <lane id=":junction_nw_18_1" index="1" speed="13.89" length="22.20" shape="-98.40,288.90 -98.40,311.10"/>
    </edge>
    <edge id=":junction_nw_20" function="internal">
        <lane id=":junction_nw_20_0" index="0" speed="9.51" length="1.38" shape="-98.40,288.90 -98.60,290.27"/>
    </edge>
    <edge id=":junction_nw_32" function="internal">
        <lane id=":junction_nw_32_0" index="0" allow="bicycle" speed="11.57" length="30.48" shape="-92.05,289.22 -93.19,297.26 -96.78,303.23 -102.74,306.81 -111.10,308.00"/>
    </edge>
    <edge id=":junction_nw_33" function="internal">
        <lane id=":junction_nw_33_0" index="0" speed="9.51" length="19.10" shape="-98.60,290.27 -99.19,294.46 -101.58,298.43 -105.54,300.81 -111.10,301.60"/>
    </edge>
    <edge id=":junction_nw_21" function="internal">
        <lane id=":junction_nw_21_0" index="0" allow="bicycle" speed="5.04" length="5.00" shape="-111.10,292.00 -109.74,291.81 -108.77,291.23 -108.19,290.26 -108.00,288.90"/>
    </edge>
    <edge id=":junction_nw_22" function="internal">
        <lane id=":junction_nw_22_0" index="0" allow="bicycle" speed="13.89" length="22.20" shape="-111.10,292.00 -88.90,292.00"/>
    </edge>
    <edge id=":junction_nw_23" function="internal">
        <lane id=":junction_nw_23_0" index="0" allow="bicycle" speed="11.57" length="19.16" shape="-111.10,292.00 -102.74,293.19 -96.78,296.77 -94.84,300.00"/>
    </edge>
    <edge id=":junction_nw_24" function="internal">
        <lane id=":junction_nw_24_0" index="0" speed="6.86" length="10.16" shape="-111.10,295.20 -108.34,294.81 -106.38,293.62 -105.19,291.66 -104.80,288.90"/>
    </edge>
    <edge id=":junction_nw_25" function="internal">
        <lane id=":junction_nw_25_0" index="0" speed="13.89" length="22.20" shape="-111.10,295.20 -88.90,295.20"/>
        <lane id=":junction_nw_25_1" index="1" speed="13.89" length="22.20" shape="-111.10,298.40 -88.90,298.40"/>
    </edge>
    <edge id=":junction_nw_27" function="internal">
        <lane id=":junction_nw_27_0" index="0" speed="9.51" length="7.18" shape="-111.10,298.40 -105.54,299.19 -104.20,300.00"/>
    </edge>
    <edge id=":junction_nw_34" function="internal">
        <lane id=":junction_nw_34_0" index="0" allow="bicycle" speed="11.57" length="11.64" shape="-94.84,300.00 -93.19,302.74 -92.00,311.10"/>
    </edge>
    <edge id=":junction_nw_35" function="internal">
        <lane id=":junction_nw_35_0" index="0" speed="9.51" length="13.30" shape="-104.20,300.00 -101.57,301.57 -99.19,305.54 -98.40,311.10"/>
    </edge>
    <edge id=":junction_se_0" function="internal">
        <lane id=":junction_se_0_0" index="0" allow="bicycle" speed="5.04" length="5.00" shape="92.00,111.10 91.81,109.74 91.22,108.77 90.26,108.19 88.90,108.00"/>
    </edge>
    <edge id=":junction_se_1" function="internal">
        <lane id=":junction_se_1_0" index="0" allow="bicycle" speed="13.89" length="22.20" shape="92.00,111.10 92.00,88.90"/>
    </edge>
    <edge id=":junction_se_2" function="internal">
        <lane id=":junction_se_2_0" index="0" allow="bicycle" speed="11.57" length="0.32" shape="92.00,111.10 92.05,110.78"/>
    </edge>
    <edge id=":junction_se_3" function="internal">
        <lane id=":junction_se_3_0" index="0" speed="6.86" length="10.16" shape="95.20,111.10 94.81,108.34 93.62,106.38 91.66,105.19 88.90,104.80"/>
    </edge>
    <edge id=":junction_se_4" function="internal">
        <lane id=":junction_se_4_0" index="0" speed="13.89" length="22.20" shape="95.20,111.10 95.20,88.90"/>
        <lane id=":junction_se_4_1" index="1" speed="13.89" length="22.20" shape="98.40,111.10 98.40,88.90"/>
    </edge>
    <edge id=":junction_se_6" function="internal">
        <lane id=":junction_se_6_0" index="0" speed="9.51" length="1.38" shape="98.40,111.10 98.60,109.73"/>
    </edge>
    <edge id=":junction_se_28" function="internal">
        <lane id=":junction_se_28_0" index="0" allow="bicycle" speed="11.57" length="30.48" shape="92.05,110.78 93.19,102.74 96.78,96.78 102.74,93.19 111.10,92.00"/>
    </edge>
    <edge id=":junction_se_29" function="internal">
        <lane id=":junction_se_29_0" index="0" speed="9.51" length="19.10" shape="98.60,109.73 99.19,105.54 101.58,101.58 105.54,99.19 111.10,98.40"/>
    </edge>
    <edge id=":junction_se_7" function="internal">
        <lane id=":junction_se_7_0" index="0" allow="bicycle" speed="5.04" length="5.00" shape="111.10,108.00 109.74,108.19 108.77,108.78 108.19,109.74 108.00,111.10"/>
    </edge>
    <edge id=":junction_se_8" function="internal">
        <lane id=":junction_se_8_0" index="0" allow="bicycle" speed="13.89" length="22.20" shape="111.10,108.00 88.90,108.00"/>
    </edge>
    <edge id=":junction_se_9" function="internal">
        <lane id=":junction_se_9_0" index="0" allow="bicycle" speed="11.57" length="19.16" shape="111.10,108.00 102.74,106.81 96.77,103.22 94.84,100.00"/>
    </edge>
    <edge id=":junction_se_10" function="internal">
        <lane id=":junction_se_10_0" index="0" speed="6.86" length="10.16" shape="111.10,104.80 108.34,105.19 106.38,106.38 105.19,108.34 104.80,111.10"/>
    </edge>
    <edge id=":junction_se_11" function="internal">
        <lane id=":junction_se_11_0" index="0" speed="13.89" length="22.20" shape="111.10,104.80 88.90,104.80"/>
        <lane id=":junction_se_11_1" index="1" speed="13.89" length="22.20" shape="111.10,101.60 88.90,101.60"/>
    </edge>
    <edge id=":junction_se_13" function="internal">
        <lane id=":junction_se_13_0" index="0" speed="9.51" length="7.18" shape="111.10,101.60 105.54,100.81 104.20,100.00"/>
    </edge>
    <edge id=":junction_se_30" function="internal">
        <lane id=":junction_se_30_0" index="0" allow="bicycle" speed="11.57" length="11.64" shape="94.84,100.00 93.19,97.26 92.00,88.90"/>
    </edge>
    <edge id=":junction_se_31" function="internal">
        <lane id=":junction_se_31_0" index="0" speed="9.51" length="13.30" shape="104.20,100.00 101.57,98.42 99.19,94.46 98.40,88.90"/>
    </edge>
    <edge id=":junction_se_14" function="internal">
        <lane id=":junction_se_14_0" index="0" allow="bicycle" speed="5.04" length="5.00" shape="108.00,88.90 108.19,90.26 108.78,91.22 109.74,91.81 111.10,92.00"/>
    </edge>
    <edge id=":junction_se_15" function="internal">
        <lane id=":junction_se_15_0" index="0" allow="bicycle" speed="13.89" length="22.20" shape="108.00,88.90 108.00,111.10"/>
    </edge>
    <edge id=":junction_se_16" function="internal">
        <lane id=":junction_se_16_0" index="0" allow="bicycle" speed="11.57" length="0.32" shape="108.00,88.90 107.95,89.22"/>
    </edge>
    <edge id=":junction_se_17" function="internal">
        <lane id=":junction_se_17_0" index="0" speed="6.86" length="10.16" shape="104.80,88.90 105.19,91.66 106.38,93.63 108.34,94.81 111.10,95.20"/>
    </edge>
    <edge id=":junction_se_18" function="internal">
        <lane id=":junction_se_18_0" index="0" speed="13.89" length="22.20" shape="104.80,88.90 104.80,111.10"/>
        <lane id=":junction_se_18_1" index="1" speed="13.89" length="22.20" shape="101.60,88.90 101.60,111.10"/>
    </edge>
    <edge id=":junction_se_20" function="internal">
        <lane id=":junction_se_20_0" index="0" speed="9.51" length="1.38" shape="101.60,88.90 101.40,90.27"/>
    </edge>
    <edge id=":junction_se_32" function="internal">
        <lane id=":junction_se_32_0" index="0" allow="bicycle" speed="11.57" length="30.48" shape="107.95,89.22 106.81,97.26 103.22,103.22 97.26,106.81 88.90,108.00"/>
    </edge>
    <edge id=":junction_se_33" function="internal">
        <lane id=":junction_se_33_0" index="0" speed="9.51" length="19.10" shape="101.40,90.27 100.81,94.46 98.42,98.43 94.46,100.81 88.90,101.60"/>
    </edge>
    <edge id=":junction_se_21" function="internal">
        <lane id=":junction_se_21_0" index="0" allow="bicycle" speed="5.04" length="5.00" shape="88.90,92.00 90.26,91.81 91.22,91.22 91.81,90.26 92.00,88.90"/>
    </edge>
    <edge id=":junction_se_22" function="internal">
        <lane id=":junction_se_22_0" index="0" allow="bicycle" speed="13.89" length="22.20" shape="88.90,92.00 111.10,92.00"/>
    </edge>
    <edge id=":junction_se_23" function="internal">
        <lane id=":junction_se_23_0" index="0" allow="bicycle" speed="11.57" length="19.16" shape="88.90,92.00 97.26,93.19 103.22,96.78 105.16,100.00"/>
    </edge>
    <edge id=":junction_se_24" function="internal">
        <lane id=":junction_se_24_0" index="0" speed="6.86" length="10.16" shape="88.90,95.20 91.66,94.81 93.62,93.62 94.81,91.66 95.20,88.90"/>
    </edge>
    <edge id=":junction_se_25" function="internal">
        <lane id=":junction_se_25_0" index="0" speed="13.89" length="22.20" shape="88.90,95.20 111.10,95.20"/>
        <lane id=":junction_se_25_1" index="1" speed="13.89" length="22.20" shape="88.90,98.40 111.10,98.40"/>
    </edge>
    <edge id=":junction_se_27" function="internal">
        <lane id=":junction_se_27_0" index="0" speed="9.51" length="7.18" shape="88.90,98.40 94.46,99.19 95.80,100.00"/>
    </edge>
    <edge id=":junction_se_34" function="internal">
        <lane id=":junction_se_34_0" index="0" allow="bicycle" speed="11.57" length="11.64" shape="105.16,100.00 106.81,102.74 108.00,111.10"/>
    </edge>
    <edge id=":junction_se_35" function="internal">
        <lane id=":junction_se_35_0" index="0" speed="9.51" length="13.30" shape="95.80,100.00 98.43,101.58 100.81,105.54 101.60,111.10"/>
    </edge>
    <edge id=":junction_sw_0" function="internal">
        <lane id=":junction_sw_0_0" index="0" allow="bicycle" speed="5.04" length="5.00" shape="-108.00,111.10 -108.19,109.74 -108.78,108.78 -109.74,108.19 -111.10,108.00"/>
    </edge>
    <edge id=":junction_sw_1" function="internal">
        <lane id=":junction_sw_1_0" index="0" allow="bicycle" speed="13.89" length="22.20" shape="-108.00,111.10 -108.00,88.90"/>
    </edge>
    <edge id=":junction_sw_2" function="internal">
        <lane id=":junction_sw_2_0" index="0" allow="bicycle" speed="11.57" length="0.32" shape="-108.00,111.10 -107.95,110.78"/>
    </edge>
    <edge id=":junction_sw_3" function="internal">
        <lane id=":junction_sw_3_0" index="0" speed="6.86" length="10.16" shape="-104.80,111.10 -105.19,108.34 -106.38,106.38 -108.34,105.19 -111.10,104.80"/>
    </edge>
    <edge id=":junction_sw_4" function="internal">
        <lane id=":junction_sw_4_0" index="0" speed="13.89" length="22.20" shape="-104.80,111.10 -104.80,88.90"/>
        <lane id=":junction_sw_4_1" index="1" speed="13.89" length="22.20" shape="-101.60,111.10 -101.60,88.90"/>
    </edge>
    <edge id=":junction_sw_6" function="internal">
        <lane id=":junction_sw_6_0" index="0" speed="9.51" length="1.38" shape="-101.60,111.10 -101.40,109.73"/>
    </edge>
    <edge id=":junction_sw_28" function="internal">
        <lane id=":junction_sw_28_0" index="0" allow="bicycle" speed="11.57" length="30.48" shape="-107.95,110.78 -106.81,102.74 -103.22,96.77 -97.26,93.19 -88.90,92.00"/>
    </edge>
    <edge id=":junction_sw_29" function="internal">
        <lane id=":junction_sw_29_0" index="0" speed="9.51" length="19.10" shape="-101.40,109.73 -100.81,105.54 -98.42,101.58 -94.46,99.19 -88.90,98.40"/>
    </edge>
    <edge id=":junction_sw_7" function="internal">
        <lane id=":junction_sw_7_0" index="0" allow="bicycle" speed="5.04" length="5.00" shape="-88.90,108.00 -90.26,108.19 -91.23,108.78 -91.81,109.74 -92.00,111.10"/>
    </edge>
    <edge id=":junction_sw_8" function="internal">
        <lane id=":junction_sw_8_0" index="0" allow="bicycle" speed="13.89" length="22.20" shape="-88.90,108.00 -111.10,108.00"/>
    </edge>
    <edge id=":junction_sw_9" function="internal">
        <lane id=":junction_sw_9_0" index="0" allow="bicycle" speed="11.57" length="19.16" shape="-88.90,108.00 -97.26,106.81 -103.22,103.22 -105.16,100.00"/>
    </edge>
    <edge id=":junction_sw_10" function="internal">
        <lane id=":junction_sw_10_0" index="0" speed="6.86" length="10.16" shape="-88.90,104.80 -91.66,105.19 -93.62,106.38 -94.81,108.34 -95.20,111.10"/>
    </edge>
    <edge id=":junction_sw_11" function="internal">
        <lane id=":junction_sw_11_0" index="0" speed="13.89" length="22.20" shape="-88.90,104.80 -111.10,104.80"/>
        <lane id=":junction_sw_11_1" index="1" speed="13.89" length="22.20" shape="-88.90,101.60 -111.10,101.60"/>
    </edge>
    <edge id=":junction_sw_13" function="internal">
        <lane id=":junction_sw_13_0" index="0" speed="9.51" length="7.18" shape="-88.90,101.60 -94.46,100.81 -95.80,100.00"/>
    </edge>
    <edge id=":junction_sw_30" function="internal">
        <lane id=":junction_sw_30_0" index="0" allow="bicycle" speed="11.57" length="11.64" shape="-105.16,100.00 -106.81,97.26 -108.00,88.90"/>
    </edge>
    <edge id=":junction_sw_31" function="internal">
        <lane id=":junction_sw_31_0" index="0" speed="9.51" length="13.30" shape="-95.80,100.00 -98.42,98.42 -100.81,94.46 -101.60,88.90"/>
    </edge>
    <edge id=":junction_sw_14" function="internal">
        <lane id=":junction_sw_14_0" index="0" allow="bicycle" speed="5.04" length="5.00" shape="-92.00,88.90 -91.81,90.26 -91.22,91.22 -90.26,91.81 -88.90,92.00"/>
    </edge>
    <edge id=":junction_sw_15" function="internal">
        <lane id=":junction_sw_15_0" index="0" allow="bicycle" speed="13.89" length="22.20" shape="-92.00,88.90 -92.00,111.10"/>
    </edge>
    <edge id=":junction_sw_16" function="internal">
        <lane id=":junction_sw_16_0" index="0" allow="bicycle" speed="11.57" length="0.32" shape="-92.00,88.90 -92.05,89.22"/>
    </edge>
    <edge id=":junction_sw_17" function="internal">
        <lane id=":junction_sw_17_0" index="0" speed="6.86" length="10.16" shape="-95.20,88.90 -94.81,91.66 -93.62,93.62 -91.66,94.81 -88.90,95.20"/>
    </edge>
    <edge id=":junction_sw_18" function="internal">
        <lane id=":junction_sw_18_0" index="0" speed="13.89" length="22.20" shape="-95.20,88.90 -95.20,111.10"/>
        <lane id=":junction_sw_18_1" index="1" speed="13.89" length="22.20" shape="-98.40,88.90 -98.40,111.10"/>
    </edge>
    <edge id=":junction_sw_20" function="internal">
        <lane id=":junction_sw_20_0" index="0" speed="9.51" length="1.38" shape="-98.40,88.90 -98.60,90.27"/>
    </edge>
    <edge id=":junction_sw_32" function="internal">
        <lane id=":junction_sw_32_0" index="0" allow="bicycle" speed="11.57" length="30.48" shape="-92.05,89.22 -93.19,97.26 -96.78,103.22 -102.74,106.81 -111.10,108.00"/>
    </edge>
    <edge id=":junction_sw_33" function="internal">
        <lane id=":junction_sw_33_0" index="0" speed="9.51" length="19.10" shape="-98.60,90.27 -99.19,94.46 -101.58,98.43 -105.54,100.81 -111.10,101.60"/>
    </edge>
    <edge id=":junction_sw_21" function="internal">
        <lane id=":junction_sw_21_0" index="0" allow="bicycle" speed="5.04" length="5.00" shape="-111.10,92.00 -109.74,91.81 -108.77,91.22 -108.19,90.26 -108.00,88.90"/>
    </edge>
    <edge id=":junction_sw_22" function="internal">
        <lane id=":junction_sw_22_0" index="0" allow="bicycle" speed="13.89" length="22.20" shape="-111.10,92.00 -88.90,92.00"/>
    </edge>
    <edge id=":junction_sw_23" function="internal">
        <lane id=":junction_sw_23_0" index="0" allow="bicycle" speed="11.57" length="19.16" shape="-111.10,92.00 -102.74,93.19 -96.78,96.78 -94.84,100.00"/>
    </edge>
    <edge id=":junction_sw_24" function="internal">
        <lane id=":junction_sw_24_0" index="0" speed="6.86" length="10.16" shape="-111.10,95.20 -108.34,94.81 -106.38,93.62 -105.19,91.66 -104.80,88.90"/>
    </edge>
    <edge id=":junction_sw_25" function="internal">
        <lane id=":junction_sw_25_0" index="0" speed="13.89" length="22.20" shape="-111.10,95.20 -88.90,95.20"/>
        <lane id=":junction_sw_25_1" index="1" speed="13.89" length="22.20" shape="-111.10,98.40 -88.90,98.40"/>
    </edge>
    <edge id=":junction_sw_27" function="internal">
        <lane id=":junction_sw_27_0" index="0" speed="9.51" length="7.18" shape="-111.10,98.40 -105.54,99.19 -104.20,100.00"/>
    </edge>
    <edge id=":junction_sw_34" function="internal">
        <lane id=":junction_sw_34_0" index="0" allow="bicycle" speed="11.57" length="11.64" shape="-94.84,100.00 -93.19,102.74 -92.00,111.10"/>
    </edge>
    <edge id=":junction_sw_35" function="internal">
        <lane id=":junction_sw_35_0" index="0" speed="9.51" length="13.30" shape="-104.20,100.00 -101.57,101.58 -99.19,105.54 -98.40,111.10"/>
    </edge>

    <edge id="edge_ne_nw" from="junction_ne" to="junction_nw" priority="-1">
        <lane id="edge_ne_nw_0" index="0" allow="bicycle" speed="13.89" length="177.80" shape="88.90,308.00 -88.90,308.00"/>
        <lane id="edge_ne_nw_1" index="1" speed="13.89" length="177.80" shape="88.90,304.80 -88.90,304.80"/>
        <lane id="edge_ne_nw_2" index="2" speed="13.89" length="177.80" shape="88.90,301.60 -88.90,301.60"/>
    </edge>
    <edge id="edge_ne_rightentry" from="waypoint_ne_right" to="junction_ne" priority="-1">