<?xml version="1.0" encoding="UTF-8"?>

<!-- generated on 09/20/20 17:32:15 by Eclipse SUMO netedit Version 1.7.0
<configuration xmlns:xsi="http://www.w3.org/2001/XMLSchema-instance" xsi:noNamespaceSchemaLocation="http://sumo.dlr.de/xsd/netconvertConfiguration.xsd">
    <output>
        <output-file value="C:\Users\vladi\Desktop\SUMO\Dutch.net.xml"/>
    </output>
    <processing>
        <offset.disable-normalization value="true"/>
    </processing>
    <junctions>
        <no-internal-links value="false"/>
        <no-turnarounds value="true"/>
    </junctions>
    <netedit>
        <route-files value="C:\Users\vladi\Desktop\SUMO\Dutch.rou.xml"/>
        <TLSPrograms-output value="C:\Users\vladi\Desktop\SUMO\Dutch.xml"/>
    </netedit>
    <report>
        <aggregate-warnings value="5"/>
    </report>
</configuration>
-->

<routes xmlns:xsi="http://www.w3.org/2001/XMLSchema-instance" xsi:noNamespaceSchemaLocation="http://sumo.dlr.de/xsd/routes_file.xsd">
    <vType id="DEFAULT_BIKETYPE" vClass="bicycle" color="green"/>
    <vType id="DEFAULT_VEHTYPE" vClass="private" color="0,175,255"/>
    <route edges="-gneE5 -gneE6" color="yellow" id="route_0"/>
    <route edges="-gneE5 -gneE7" color="yellow" id="route_1"/>
    <personFlow id="personFlow_0" begin="0.00" color="0,255,63" end="3600.00" number="1800">
        <personTrip from="-gneE5" to="gneE6"/>
    </personFlow>
    <personFlow id="personFlow_1" begin="0.00" end="3600.00" number="1800">
        <personTrip from="gneE7" to="gneE4"/>
    </personFlow>
    <flow id="flow_2" type="DEFAULT_BIKETYPE" begin="0.00" route="route_1" end="3600.00" number="1800"/>
    <flow id="flow_3" type="DEFAULT_BIKETYPE" begin="0.00" route="route_1" end="3600.00" number="1800"/>
    <flow id="flow_4" type="DEFAULT_BIKETYPE" begin="0.00" route="route_0" end="3600.00" number="1800"/>
    <flow id="flow_0" begin="0.00" end="3600.00" number="1800">
        <route edges="gneE6 gneE5" color="cyan"/>
    </flow>
    <flow id="flow_1" begin="0.00" end="3600.00" number="1800">
        <route edges="-gneE4 gneE5" color="cyan"/>
    </flow>
</routes>