<?xml version="1.0" encoding="UTF-8"?>

<!-- generated on wo 30 sep 2020 16:41:35 CEST by Eclipse SUMO netedit Version 1.7.0
<configuration xmlns:xsi="http://www.w3.org/2001/XMLSchema-instance" xsi:noNamespaceSchemaLocation="http://sumo.dlr.de/xsd/netconvertConfiguration.xsd">

    <input>
        <sumo-net-file value="/home/caitlin/Documents/B08-genetictrafficbikelights/SUMO/Dutch.net.xml"/>
    </input>

    <output>
        <output-file value="/home/caitlin/Documents/B08-genetictrafficbikelights/SUMO/withveh.net.xml"/>
    </output>

    <processing>
        <geometry.min-radius.fix.railways value="false"/>
        <geometry.max-grade.fix value="false"/>
        <offset.disable-normalization value="true"/>
        <lefthand value="false"/>
    </processing>

    <junctions>
        <no-internal-links value="false"/>
        <no-turnarounds value="true"/>
        <junctions.corner-detail value="5"/>
        <junctions.limit-turn-speed value="5.5"/>
        <rectangular-lane-cut value="false"/>
    </junctions>

    <pedestrian>
        <walkingareas value="false"/>
    </pedestrian>

    <netedit>
        <route-files value="/home/caitlin/Documents/B08-genetictrafficbikelights/SUMO/whatever.rou.xml"/>
    </netedit>

    <report>
        <aggregate-warnings value="5"/>
    </report>

</configuration>
-->

<routes xmlns:xsi="http://www.w3.org/2001/XMLSchema-instance" xsi:noNamespaceSchemaLocation="http://sumo.dlr.de/xsd/routes_file.xsd">
    <vType id="DEFAULT_VEHTYPE" vClass="ignoring" color="255,191,0"/>
    <vType id="vType_0"/>
    <vType id="vType_1"/>
    <vType id="vType_2"/>
    <vType id="vType_3"/>
    <vType id="vType_4"/>
    <flow id="flow_0" begin="0.00" from="gneE6" to="gneE5" end="3600.00" probability="0.50"/>
    <flow id="flow_1" begin="0.00" from="gneE6" to="gneE5" end="3600.00" probability="0.50"/>
    <flow id="flow_2" begin="0.00" from="gneE7" to="-gneE6" end="3600.00" probability="0.50"/>
    <flow id="flow_3" begin="0.00" from="gneE6" to="gneE4" end="3600.00" probability="0.50"/>
    <flow id="flow_4" begin="0.00" from="-gneE4" to="-gneE7" end="3600.00" probability="0.50"/>
    <flow id="flow_5" begin="0.00" from="-gneE4" to="gneE5" end="3600.00" probability="0.50"/>
</routes>
