<?xml version="1.0" encoding="UTF-8"?>

<!-- generated on 10/04/20 22:12:48 by Eclipse SUMO netedit Version 1.7.0
<configuration xmlns:xsi="http://www.w3.org/2001/XMLSchema-instance" xsi:noNamespaceSchemaLocation="http://sumo.dlr.de/xsd/netconvertConfiguration.xsd">

    <input>
        <sumo-net-file value="C:\Users\vladi\Desktop\DMAS\B08-genetictrafficbikelights\beta_version\intersection.net.xml"/>
    </input>

    <output>
        <output-file value="C:\Users\vladi\Desktop\DMAS\B08-genetictrafficbikelights\beta_version\intersection.net.xml"/>
    </output>

    <processing>
        <geometry.min-radius.fix.railways value="false"/>
        <geometry.max-grade.fix value="false"/>
        <offset.disable-normalization value="true"/>
        <lefthand value="false"/>
    </processing>

    <junctions>
        <no-turnarounds value="true"/>
        <junctions.corner-detail value="5"/>
        <junctions.limit-turn-speed value="5.5"/>
        <rectangular-lane-cut value="false"/>
    </junctions>

    <pedestrian>
        <walkingareas value="false"/>
    </pedestrian>

    <netedit>
        <route-files value="C:\Users\vladi\Desktop\DMAS\B08-genetictrafficbikelights\beta_version\intersection2.rou.xml"/>
    </netedit>

    <report>
        <aggregate-warnings value="5"/>
    </report>

</configuration>
-->

<net version="1.6" junctionCornerDetail="5" limitTurnSpeed="5.50" xmlns:xsi="http://www.w3.org/2001/XMLSchema-instance" xsi:noNamespaceSchemaLocation="http://sumo.dlr.de/xsd/net_file.xsd">

    <location netOffset="0.00,0.00" convBoundary="100.00,0.00,300.00,200.00" origBoundary="-10000000000.00,-10000000000.00,10000000000.00,10000000000.00" projParameter="!"/>

    <edge id=":center_0" function="internal">
        <lane id=":center_0_0" index="0" allow="bicycle" speed="4.80" length="4.84" width="2.00" shape="192.60,110.40 192.41,109.09 191.85,108.15 190.91,107.59 189.60,107.40"/>
    </edge>
    <edge id=":center_1" function="internal">
        <lane id=":center_1_0" index="0" allow="bicycle" speed="13.89" length="20.80" width="2.00" shape="192.60,110.40 192.60,89.60"/>
    </edge>
    <edge id=":center_2" function="internal">
        <lane id=":center_2_0" index="0" allow="bicycle" speed="11.11" length="1.45" width="2.00" shape="192.60,110.40 192.81,108.96"/>
    </edge>
    <edge id=":center_3" function="internal">
        <lane id=":center_3_0" index="0" disallow="pedestrian bicycle" speed="6.51" length="2.96" shape="195.20,110.40 194.85,107.95 194.60,107.53"/>
    </edge>
    <edge id=":center_4" function="internal">
        <lane id=":center_4_0" index="0" disallow="pedestrian bicycle" speed="13.89" length="20.80" shape="195.20,110.40 195.20,89.60"/>
        <lane id=":center_4_1" index="1" disallow="pedestrian bicycle" speed="13.89" length="20.80" shape="198.40,110.40 198.40,89.60"/>
    </edge>
    <edge id=":center_6" function="internal">
        <lane id=":center_6_0" index="0" disallow="pedestrian bicycle" speed="9.26" length="2.64" shape="198.40,110.40 198.77,107.79"/>
    </edge>
    <edge id=":center_28" function="internal">
        <lane id=":center_28_0" index="0" allow="bicycle" speed="11.11" length="27.25" width="2.00" shape="192.81,108.96 193.71,102.61 197.05,97.05 202.61,93.71 210.40,92.60"/>
    </edge>
    <edge id=":center_29" function="internal">
        <lane id=":center_29_0" index="0" disallow="pedestrian bicycle" speed="6.51" length="6.07" shape="194.60,107.53 193.80,106.20 192.05,105.15 189.60,104.80"/>
    </edge>
    <edge id=":center_30" function="internal">
        <lane id=":center_30_0" index="0" disallow="pedestrian bicycle" speed="9.26" length="16.72" shape="198.77,107.79 199.15,105.15 201.40,101.40 205.15,99.15 210.40,98.40"/>
    </edge>
    <edge id=":center_7" function="internal">
        <lane id=":center_7_0" index="0" allow="bicycle" speed="4.80" length="4.84" width="2.00" shape="210.40,107.40 209.09,107.59 208.15,108.15 207.59,109.09 207.40,110.40"/>
    </edge>
    <edge id=":center_8" function="internal">
        <lane id=":center_8_0" index="0" allow="bicycle" speed="13.89" length="20.80" width="2.00" shape="210.40,107.40 189.60,107.40"/>
    </edge>
    <edge id=":center_9" function="internal">
        <lane id=":center_9_0" index="0" allow="bicycle" speed="11.11" length="17.79" width="2.00" shape="210.40,107.40 202.61,106.29 197.05,102.95 195.28,100.00"/>
    </edge>
    <edge id=":center_10" function="internal">
        <lane id=":center_10_0" index="0" disallow="pedestrian bicycle" speed="6.51" length="2.96" shape="210.40,104.80 207.95,105.15 207.53,105.40"/>
    </edge>
    <edge id=":center_11" function="internal">
        <lane id=":center_11_0" index="0" disallow="pedestrian bicycle" speed="13.89" length="20.80" shape="210.40,104.80 189.60,104.80"/>
        <lane id=":center_11_1" index="1" disallow="pedestrian bicycle" speed="13.89" length="20.80" shape="210.40,101.60 189.60,101.60"/>
    </edge>
    <edge id=":center_13" function="internal">
        <lane id=":center_13_0" index="0" disallow="pedestrian bicycle" speed="9.26" length="6.96" shape="210.40,101.60 205.15,100.85 203.73,100.00"/>
    </edge>
    <edge id=":center_31" function="internal">
        <lane id=":center_31_0" index="0" allow="bicycle" speed="11.11" length="10.91" width="2.00" shape="195.28,100.00 193.71,97.39 192.60,89.60"/>
    </edge>
    <edge id=":center_32" function="internal">
        <lane id=":center_32_0" index="0" disallow="pedestrian bicycle" speed="6.51" length="6.07" shape="207.53,105.40 206.20,106.20 205.15,107.95 204.80,110.40"/>
    </edge>
    <edge id=":center_33" function="internal">
        <lane id=":center_33_0" index="0" disallow="pedestrian bicycle" speed="9.26" length="12.40" shape="203.73,100.00 201.40,98.60 199.15,94.85 198.40,89.60"/>
    </edge>
    <edge id=":center_14" function="internal">
        <lane id=":center_14_0" index="0" allow="bicycle" speed="4.80" length="4.84" width="2.00" shape="207.40,89.60 207.59,90.91 208.15,91.85 209.09,92.41 210.40,92.60"/>
    </edge>
    <edge id=":center_15" function="internal">
        <lane id=":center_15_0" index="0" allow="bicycle" speed="13.89" length="20.80" width="2.00" shape="207.40,89.60 207.40,110.40"/>
    </edge>
    <edge id=":center_16" function="internal">
        <lane id=":center_16_0" index="0" allow="bicycle" speed="11.11" length="1.45" width="2.00" shape="207.40,89.60 207.19,91.04"/>
    </edge>
    <edge id=":center_17" function="internal">
        <lane id=":center_17_0" index="0" disallow="pedestrian bicycle" speed="6.51" length="2.96" shape="204.80,89.60 205.15,92.05 205.40,92.47"/>
    </edge>
    <edge id=":center_18" function="internal">
        <lane id=":center_18_0" index="0" disallow="pedestrian bicycle" speed="13.89" length="20.80" shape="204.80,89.60 204.80,110.40"/>
        <lane id=":center_18_1" index="1" disallow="pedestrian bicycle" speed="13.89" length="20.80" shape="201.60,89.60 201.60,110.40"/>
    </edge>
    <edge id=":center_20" function="internal">
        <lane id=":center_20_0" index="0" disallow="pedestrian bicycle" speed="9.26" length="2.64" shape="201.60,89.60 201.23,92.21"/>
    </edge>
    <edge id=":center_34" function="internal">
        <lane id=":center_34_0" index="0" allow="bicycle" speed="11.11" length="27.25" width="2.00" shape="207.19,91.04 206.29,97.39 202.95,102.95 197.39,106.29 189.60,107.40"/>
    </edge>
    <edge id=":center_35" function="internal">
        <lane id=":center_35_0" index="0" disallow="pedestrian bicycle" speed="6.51" length="6.07" shape="205.40,92.47 206.20,93.80 207.95,94.85 210.40,95.20"/>
    </edge>
    <edge id=":center_36" function="internal">
        <lane id=":center_36_0" index="0" disallow="pedestrian bicycle" speed="9.26" length="16.72" shape="201.23,92.21 200.85,94.85 198.60,98.60 194.85,100.85 189.60,101.60"/>
    </edge>
    <edge id=":center_21" function="internal">
        <lane id=":center_21_0" index="0" allow="bicycle" speed="4.80" length="4.84" width="2.00" shape="189.60,92.60 190.91,92.41 191.85,91.85 192.41,90.91 192.60,89.60"/>
    </edge>
    <edge id=":center_22" function="internal">
        <lane id=":center_22_0" index="0" allow="bicycle" speed="13.89" length="20.80" width="2.00" shape="189.60,92.60 210.40,92.60"/>
    </edge>
    <edge id=":center_23" function="internal">
        <lane id=":center_23_0" index="0" allow="bicycle" speed="11.11" length="17.79" width="2.00" shape="189.60,92.60 197.39,93.71 202.95,97.05 204.72,100.00"/>
    </edge>
    <edge id=":center_24" function="internal">
        <lane id=":center_24_0" index="0" disallow="pedestrian bicycle" speed="6.51" length="2.96" shape="189.60,95.20 192.05,94.85 192.47,94.60"/>
    </edge>
    <edge id=":center_25" function="internal">
        <lane id=":center_25_0" index="0" disallow="pedestrian bicycle" speed="13.89" length="20.80" shape="189.60,95.20 210.40,95.20"/>
        <lane id=":center_25_1" index="1" disallow="pedestrian bicycle" speed="13.89" length="20.80" shape="189.60,98.40 210.40,98.40"/>
    </edge>
    <edge id=":center_27" function="internal">
        <lane id=":center_27_0" index="0" disallow="pedestrian bicycle" speed="9.26" length="6.96" shape="189.60,98.40 194.85,99.15 196.27,100.00"/>
    </edge>
    <edge id=":center_37" function="internal">
        <lane id=":center_37_0" index="0" allow="bicycle" speed="11.11" length="10.91" width="2.00" shape="204.72,100.00 206.29,102.61 207.40,110.40"/>
    </edge>
    <edge id=":center_38" function="internal">
        <lane id=":center_38_0" index="0" disallow="pedestrian bicycle" speed="6.51" length="6.07" shape="192.47,94.60 193.80,93.80 194.85,92.05 195.20,89.60"/>
    </edge>
    <edge id=":center_39" function="internal">
        <lane id=":center_39_0" index="0" disallow="pedestrian bicycle" speed="9.26" length="12.40" shape="196.27,100.00 198.60,101.40 200.85,105.15 201.60,110.40"/>
    </edge>

    <edge id="edge_center_east" from="center" to="node_east" priority="-1" length="150.00">
        <lane id="edge_center_east_0" index="0" allow="bicycle" speed="13.89" length="150.00" width="2.00" shape="210.40,92.60 300.00,92.60"/>
        <lane id="edge_center_east_1" index="1" disallow="pedestrian bicycle" speed="13.89" length="150.00" shape="210.40,95.20 300.00,95.20"/>
        <lane id="edge_center_east_2" index="2" disallow="pedestrian bicycle" speed="13.89" length="150.00" shape="210.40,98.40 300.00,98.40"/>
    </edge>
    <edge id="edge_center_north" from="center" to="node_north" priority="-1" length="150.00">
        <lane id="edge_center_north_0" index="0" allow="bicycle" speed="13.89" length="150.00" width="2.00" shape="207.40,110.40 207.40,200.00"/>
        <lane id="edge_center_north_1" index="1" disallow="pedestrian bicycle" speed="13.89" length="150.00" shape="204.80,110.40 204.80,200.00"/>
        <lane id="edge_center_north_2" index="2" disallow="pedestrian bicycle" speed="13.89" length="150.00" shape="201.60,110.40 201.60,200.00"/>
    </edge>
    <edge id="edge_center_south" from="center" to="node_south" priority="-1" length="150.00">
        <lane id="edge_center_south_0" index="0" allow="bicycle" speed="13.89" length="150.00" width="2.00" shape="192.60,89.60 192.60,0.00"/>
        <lane id="edge_center_south_1" index="1" disallow="pedestrian bicycle" speed="13.89" length="150.00" shape="195.20,89.60 195.20,0.00"/>
        <lane id="edge_center_south_2" index="2" disallow="pedestrian bicycle" speed="13.89" length="150.00" shape="198.40,89.60 198.40,0.00"/>
    </edge>
    <edge id="edge_center_west" from="center" to="node_west" priority="-1" length="150.00">
        <lane id="edge_center_west_0" index="0" allow="bicycle" speed="13.89" length="150.00" width="2.00" shape="189.60,107.40 100.00,107.40"/>
        <lane id="edge_center_west_1" index="1" disallow="pedestrian bicycle" speed="13.89" length="150.00" shape="189.60,104.80 100.00,104.80"/>
        <lane id="edge_center_west_2" index="2" disallow="pedestrian bicycle" speed="13.89" length="150.00" shape="189.60,101.60 100.00,101.60"/>
    </edge>
    <edge id="edge_east_center" from="node_east" to="center" priority="-1" length="150.00">
        <lane id="edge_east_center_0" index="0" allow="bicycle" speed="13.89" length="150.00" width="2.00" shape="300.00,107.40 210.40,107.40"/>
        <lane id="edge_east_center_1" index="1" disallow="pedestrian bicycle" speed="13.89" length="150.00" shape="300.00,104.80 210.40,104.80"/>
        <lane id="edge_east_center_2" index="2" disallow="pedestrian bicycle" speed="13.89" length="150.00" shape="300.00,101.60 210.40,101.60"/>
    </edge>
    <edge id="edge_north_center" from="node_north" to="center" priority="-1" length="150.00">
        <lane id="edge_north_center_0" index="0" allow="bicycle" speed="13.89" length="150.00" width="2.00" shape="192.60,200.00 192.60,110.40"/>
        <lane id="edge_north_center_1" index="1" disallow="pedestrian bicycle" speed="13.89" length="150.00" shape="195.20,200.00 195.20,110.40"/>
        <lane id="edge_north_center_2" index="2" disallow="pedestrian bicycle" speed="13.89" length="150.00" shape="198.40,200.00 198.40,110.40"/>
    </edge>
    <edge id="edge_south_center" from="node_south" to="center" priority="-1" length="150.00">
        <lane id="edge_south_center_0" index="0" allow="bicycle" speed="13.89" length="150.00" width="2.00" shape="207.40,0.00 207.40,89.60"/>
        <lane id="edge_south_center_1" index="1" disallow="pedestrian bicycle" speed="13.89" length="150.00" shape="204.80,0.00 204.80,89.60"/>
        <lane id="edge_south_center_2" index="2" disallow="pedestrian bicycle" speed="13.89" length="150.00" shape="201.60,0.00 201.60,89.60"/>
    </edge>
    <edge id="edge_west_center" from="node_west" to="center" priority="-1" length="150.00">
        <lane id="edge_west_center_0" index="0" allow="bicycle" speed="13.89" length="150.00" width="2.00" shape="100.00,92.60 189.60,92.60"/>
        <lane id="edge_west_center_1" index="1" disallow="pedestrian bicycle" speed="13.89" length="150.00" shape="100.00,95.20 189.60,95.20"/>
        <lane id="edge_west_center_2" index="2" disallow="pedestrian bicycle" speed="13.89" length="150.00" shape="100.00,98.40 189.60,98.40"/>
    </edge>

    <tlLogic id="tls_center" type="static" programID="0" offset="0">
        <phase duration="42" state="GGggGGgrrrrrrrGGggGGgrrrrrrr"/>
        <phase duration="3"  state="yyyyyyyrrrrrrryyyyyyyrrrrrrr"/>
        <phase duration="42" state="rrrrrrrGGggGGgrrrrrrrGGggGGg"/>
        <phase duration="3"  state="rrrrrrryyyyyyyrrrrrrryyyyyyy"/>
    </tlLogic>

    <junction id="center" type="traffic_light" x="200.00" y="100.00" incLanes="edge_north_center_0 edge_north_center_1 edge_north_center_2 edge_east_center_0 edge_east_center_1 edge_east_center_2 edge_south_center_0 edge_south_center_1 edge_south_center_2 edge_west_center_0 edge_west_center_1 edge_west_center_2" intLanes=":center_0_0 :center_1_0 :center_28_0 :center_29_0 :center_4_0 :center_4_1 :center_30_0 :center_7_0 :center_8_0 :center_31_0 :center_32_0 :center_11_0 :center_11_1 :center_33_0 :center_14_0 :center_15_0 :center_34_0 :center_35_0 :center_18_0 :center_18_1 :center_36_0 :center_21_0 :center_22_0 :center_37_0 :center_38_0 :center_25_0 :center_25_1 :center_39_0" shape="191.60,110.40 208.40,110.40 208.62,109.29 208.90,108.90 209.29,108.62 209.79,108.46 210.40,108.40 210.40,91.60 209.29,91.38 208.90,91.10 208.62,90.71 208.46,90.21 208.40,89.60 191.60,89.60 191.38,90.71 191.10,91.10 190.71,91.38 190.21,91.54 189.60,91.60 189.60,108.40 190.71,108.62 191.10,108.90 191.38,109.29 191.54,109.79">
        <request index="0"  response="0000000000000000000000000000" foes="0000000000010000000100000000" cont="0"/>
        <request index="1"  response="1001100000000000001000000000" foes="1111111100010001101100001000" cont="0"/>
        <request index="2"  response="1000100111111110001000110000" foes="1110110111111111101100111000" cont="1"/>
        <request index="3"  response="0000000000000000000000000110" foes="0000000100010001100100000110" cont="1"/>
        <request index="4"  response="1001100000000010001000000000" foes="1111110100010011101100000100" cont="0"/>
        <request index="5"  response="1001100000000010001000000000" foes="1111110100010011101100000100" cont="0"/>
        <request index="6"  response="1000100011111010001000000000" foes="1110100011111011101100000000" cont="1"/>
        <request index="7"  response="0000000000001000000000000000" foes="0000100000001000000000000000" cont="0"/>
        <request index="8"  response="0000000011011000000001111111" foes="1000100011011000010001111111" cont="0"/>
        <request index="9"  response="1111111111011001100001110110" foes="1111111111011001110001110110" cont="1"/>
        <request index="10" response="0000000011001000001100000000" foes="1000100011001000001100000000" cont="1"/>
        <request index="11" response="0000000111011000000001111110" foes="1000100111011000001001111110" cont="0"/>
        <request index="12" response="0000000111011000000001111110" foes="1000100111011000001001111110" cont="0"/>
        <request index="13" response="0111110111011000000001110100" foes="0111110111011000000001110100" cont="1"/>
        <request index="14" response="0000000000000000000000000000" foes="0000010000000000000000000100" cont="0"/>
        <request index="15" response="0000100000000010011000000000" foes="0110110000100011111111000100" cont="0"/>
        <request index="16" response="1000100011000010001000111011" foes="1110110011100011101101111111" cont="1"/>
        <request index="17" response="0000000000011000000000000000" foes="0110010000011000000001000100" cont="1"/>
        <request index="18" response="1000100000000010011000000000" foes="1110110000010011111101000100" cont="0"/>
        <request index="19" response="1000100000000010011000000000" foes="1110110000010011111101000100" cont="0"/>
        <request index="20" response="1000100000000010001000111010" foes="1110110000000011101000111110" cont="1"/>
        <request index="21" response="0000000000000000000000000010" foes="0000000000000000001000000010" cont="0"/>
        <request index="22" response="0000000111111100000000110110" foes="0001000111111110001000110110" cont="0"/>
        <request index="23" response="0110000111011001110111110110" foes="0111000111011011111111110110" cont="1"/>
        <request index="24" response="0000110000000000000000110010" foes="0000110000000010001000110010" cont="1"/>
        <request index="25" response="0000000111111000000001110110" foes="0000100111111010001001110110" cont="0"/>
        <request index="26" response="0000000111111000000001110110" foes="0000100111111010001001110110" cont="0"/>
        <request index="27" response="0000000111010001110101110110" foes="0000000111010001111101110110" cont="1"/>
    </junction>
    <junction id="node_east" type="dead_end" x="300.00" y="100.00" incLanes="edge_center_east_0 edge_center_east_1 edge_center_east_2" intLanes="" shape="300.00,100.00 300.00,91.60 300.00,100.00"/>
    <junction id="node_north" type="dead_end" x="200.00" y="200.00" incLanes="edge_center_north_0 edge_center_north_1 edge_center_north_2" intLanes="" shape="200.00,200.00 208.40,200.00 200.00,200.00"/>
    <junction id="node_south" type="dead_end" x="200.00" y="0.00" incLanes="edge_center_south_0 edge_center_south_1 edge_center_south_2" intLanes="" shape="200.00,0.00 191.60,0.00 200.00,0.00"/>
    <junction id="node_west" type="dead_end" x="100.00" y="100.00" incLanes="edge_center_west_0 edge_center_west_1 edge_center_west_2" intLanes="" shape="100.00,100.00 100.00,108.40 100.00,100.00"/>

    <junction id=":center_28_0" type="internal" x="192.81" y="108.96" incLanes=":center_2_0 :center_16_0 :center_20_0 edge_south_center_0 edge_south_center_1 edge_south_center_2" intLanes=":center_34_0 :center_36_0 :center_4_0 :center_4_1 :center_8_0 :center_9_0 :center_11_0 :center_11_1 :center_13_0 :center_14_0 :center_15_0 :center_16_0 :center_17_0 :center_18_0 :center_18_1 :center_20_0 :center_22_0 :center_23_0 :center_25_0 :center_25_1 :center_27_0"/>
    <junction id=":center_29_0" type="internal" x="194.60" y="107.53" incLanes=":center_3_0 edge_north_center_0" intLanes=":center_1_0 :center_2_0 :center_8_0 :center_11_0 :center_11_1 :center_16_0 :center_20_0"/>
    <junction id=":center_30_0" type="internal" x="198.77" y="107.79" incLanes=":center_6_0 :center_16_0 edge_south_center_0 edge_south_center_1 edge_south_center_2" intLanes=":center_34_0 :center_8_0 :center_9_0 :center_11_0 :center_11_1 :center_13_0 :center_14_0 :center_15_0 :center_16_0 :center_17_0 :center_18_0 :center_18_1 :center_22_0 :center_23_0 :center_25_0 :center_25_1 :center_27_0"/>
    <junction id=":center_31_0" type="internal" x="195.28" y="100.00" incLanes=":center_9_0 edge_west_center_0 edge_west_center_1 edge_west_center_2" intLanes=":center_1_0 :center_2_0 :center_4_0 :center_4_1 :center_6_0 :center_11_0 :center_11_1 :center_15_0 :center_16_0 :center_18_0 :center_18_1 :center_20_0 :center_21_0 :center_22_0 :center_23_0 :center_24_0 :center_25_0 :center_25_1 :center_27_0"/>
    <junction id=":center_32_0" type="internal" x="207.53" y="105.40" incLanes=":center_10_0 edge_east_center_0" intLanes=":center_8_0 :center_9_0 :center_15_0 :center_18_0 :center_18_1 :center_23_0 :center_27_0"/>
    <junction id=":center_33_0" type="internal" x="203.73" y="100.00" incLanes=":center_13_0 edge_west_center_0 edge_west_center_1 edge_west_center_2" intLanes=":center_1_0 :center_2_0 :center_4_0 :center_4_1 :center_6_0 :center_15_0 :center_16_0 :center_18_0 :center_18_1 :center_20_0 :center_21_0 :center_22_0 :center_23_0 :center_24_0 :center_25_0 :center_25_1"/>
    <junction id=":center_34_0" type="internal" x="207.19" y="91.04" incLanes=":center_16_0 edge_north_center_0 edge_north_center_1 edge_north_center_2" intLanes=":center_0_0 :center_1_0 :center_2_0 :center_3_0 :center_4_0 :center_4_1 :center_6_0 :center_8_0 :center_9_0 :center_11_0 :center_11_1 :center_13_0 :center_18_0 :center_18_1 :center_22_0 :center_23_0 :center_25_0 :center_25_1 :center_27_0"/>
    <junction id=":center_35_0" type="internal" x="205.40" y="92.47" incLanes=":center_17_0 edge_south_center_0" intLanes=":center_2_0 :center_6_0 :center_15_0 :center_16_0 :center_22_0 :center_25_0 :center_25_1"/>
    <junction id=":center_36_0" type="internal" x="201.23" y="92.21" incLanes=":center_20_0 edge_north_center_0 edge_north_center_1 edge_north_center_2" intLanes=":center_0_0 :center_1_0 :center_2_0 :center_3_0 :center_4_0 :center_4_1 :center_8_0 :center_9_0 :center_11_0 :center_11_1 :center_13_0 :center_22_0 :center_23_0 :center_25_0 :center_25_1 :center_27_0"/>
    <junction id=":center_37_0" type="internal" x="204.72" y="100.00" incLanes=":center_23_0 edge_east_center_0 edge_east_center_1 edge_east_center_2" intLanes=":center_1_0 :center_2_0 :center_4_0 :center_4_1 :center_6_0 :center_7_0 :center_8_0 :center_9_0 :center_10_0 :center_11_0 :center_11_1 :center_13_0 :center_15_0 :center_16_0 :center_18_0 :center_18_1 :center_20_0 :center_25_0 :center_25_1"/>
    <junction id=":center_38_0" type="internal" x="192.47" y="94.60" incLanes=":center_24_0 edge_west_center_0" intLanes=":center_1_0 :center_4_0 :center_4_1 :center_9_0 :center_13_0 :center_22_0 :center_23_0"/>
    <junction id=":center_39_0" type="internal" x="196.27" y="100.00" incLanes=":center_27_0 edge_east_center_0 edge_east_center_1 edge_east_center_2" intLanes=":center_1_0 :center_2_0 :center_4_0 :center_4_1 :center_6_0 :center_7_0 :center_8_0 :center_9_0 :center_10_0 :center_11_0 :center_11_1 :center_15_0 :center_16_0 :center_18_0 :center_18_1 :center_20_0"/>

    <connection from="edge_east_center" to="edge_center_north" fromLane="0" toLane="0" via=":center_7_0" tl="tls_center" linkIndex="7" dir="r" state="o"/>
    <connection from="edge_east_center" to="edge_center_west" fromLane="0" toLane="0" via=":center_8_0" tl="tls_center" linkIndex="8" dir="s" state="o"/>
    <connection from="edge_east_center" to="edge_center_south" fromLane="0" toLane="0" via=":center_9_0" tl="tls_center" linkIndex="9" dir="l" state="o"/>
    <connection from="edge_east_center" to="edge_center_north" fromLane="1" toLane="1" via=":center_10_0" tl="tls_center" linkIndex="10" dir="r" state="o"/>
    <connection from="edge_east_center" to="edge_center_west" fromLane="1" toLane="1" via=":center_11_0" tl="tls_center" linkIndex="11" dir="s" state="o"/>
    <connection from="edge_east_center" to="edge_center_west" fromLane="2" toLane="2" via=":center_11_1" tl="tls_center" linkIndex="12" dir="s" state="o"/>
    <connection from="edge_east_center" to="edge_center_south" fromLane="2" toLane="2" via=":center_13_0" tl="tls_center" linkIndex="13" dir="l" state="o"/>
    <connection from="edge_north_center" to="edge_center_west" fromLane="0" toLane="0" via=":center_0_0" tl="tls_center" linkIndex="0" dir="r" state="O"/>
    <connection from="edge_north_center" to="edge_center_south" fromLane="0" toLane="0" via=":center_1_0" tl="tls_center" linkIndex="1" dir="s" state="O"/>
    <connection from="edge_north_center" to="edge_center_east" fromLane="0" toLane="0" via=":center_2_0" tl="tls_center" linkIndex="2" dir="l" state="o"/>
    <connection from="edge_north_center" to="edge_center_west" fromLane="1" toLane="1" via=":center_3_0" tl="tls_center" linkIndex="3" dir="r" state="o"/>
    <connection from="edge_north_center" to="edge_center_south" fromLane="1" toLane="1" via=":center_4_0" tl="tls_center" linkIndex="4" dir="s" state="O"/>
    <connection from="edge_north_center" to="edge_center_south" fromLane="2" toLane="2" via=":center_4_1" tl="tls_center" linkIndex="5" dir="s" state="O"/>
    <connection from="edge_north_center" to="edge_center_east" fromLane="2" toLane="2" via=":center_6_0" tl="tls_center" linkIndex="6" dir="l" state="o"/>
    <connection from="edge_south_center" to="edge_center_east" fromLane="0" toLane="0" via=":center_14_0" tl="tls_center" linkIndex="14" dir="r" state="O"/>
    <connection from="edge_south_center" to="edge_center_north" fromLane="0" toLane="0" via=":center_15_0" tl="tls_center" linkIndex="15" dir="s" state="O"/>
    <connection from="edge_south_center" to="edge_center_west" fromLane="0" toLane="0" via=":center_16_0" tl="tls_center" linkIndex="16" dir="l" state="o"/>
    <connection from="edge_south_center" to="edge_center_east" fromLane="1" toLane="1" via=":center_17_0" tl="tls_center" linkIndex="17" dir="r" state="o"/>
    <connection from="edge_south_center" to="edge_center_north" fromLane="1" toLane="1" via=":center_18_0" tl="tls_center" linkIndex="18" dir="s" state="O"/>
    <connection from="edge_south_center" to="edge_center_north" fromLane="2" toLane="2" via=":center_18_1" tl="tls_center" linkIndex="19" dir="s" state="O"/>
    <connection from="edge_south_center" to="edge_center_west" fromLane="2" toLane="2" via=":center_20_0" tl="tls_center" linkIndex="20" dir="l" state="o"/>
    <connection from="edge_west_center" to="edge_center_south" fromLane="0" toLane="0" via=":center_21_0" tl="tls_center" linkIndex="21" dir="r" state="o"/>
    <connection from="edge_west_center" to="edge_center_east" fromLane="0" toLane="0" via=":center_22_0" tl="tls_center" linkIndex="22" dir="s" state="o"/>
    <connection from="edge_west_center" to="edge_center_north" fromLane="0" toLane="0" via=":center_23_0" tl="tls_center" linkIndex="23" dir="l" state="o"/>
    <connection from="edge_west_center" to="edge_center_south" fromLane="1" toLane="1" via=":center_24_0" tl="tls_center" linkIndex="24" dir="r" state="o"/>
    <connection from="edge_west_center" to="edge_center_east" fromLane="1" toLane="1" via=":center_25_0" tl="tls_center" linkIndex="25" dir="s" state="o"/>
    <connection from="edge_west_center" to="edge_center_east" fromLane="2" toLane="2" via=":center_25_1" tl="tls_center" linkIndex="26" dir="s" state="o"/>
    <connection from="edge_west_center" to="edge_center_north" fromLane="2" toLane="2" via=":center_27_0" tl="tls_center" linkIndex="27" dir="l" state="o"/>

    <connection from=":center_0" to="edge_center_west" fromLane="0" toLane="0" dir="r" state="M"/>
    <connection from=":center_1" to="edge_center_south" fromLane="0" toLane="0" dir="s" state="M"/>
    <connection from=":center_2" to="edge_center_east" fromLane="0" toLane="0" via=":center_28_0" dir="l" state="m"/>
    <connection from=":center_28" to="edge_center_east" fromLane="0" toLane="0" dir="l" state="M"/>
    <connection from=":center_3" to="edge_center_west" fromLane="0" toLane="1" via=":center_29_0" dir="r" state="m"/>
    <connection from=":center_29" to="edge_center_west" fromLane="0" toLane="1" dir="r" state="M"/>
    <connection from=":center_4" to="edge_center_south" fromLane="0" toLane="1" dir="s" state="M"/>
    <connection from=":center_4" to="edge_center_south" fromLane="1" toLane="2" dir="s" state="M"/>
    <connection from=":center_6" to="edge_center_east" fromLane="0" toLane="2" via=":center_30_0" dir="l" state="m"/>
    <connection from=":center_30" to="edge_center_east" fromLane="0" toLane="2" dir="l" state="M"/>
    <connection from=":center_7" to="edge_center_north" fromLane="0" toLane="0" dir="r" state="M"/>
    <connection from=":center_8" to="edge_center_west" fromLane="0" toLane="0" dir="s" state="M"/>
    <connection from=":center_9" to="edge_center_south" fromLane="0" toLane="0" via=":center_31_0" dir="l" state="m"/>
    <connection from=":center_31" to="edge_center_south" fromLane="0" toLane="0" dir="l" state="M"/>
    <connection from=":center_10" to="edge_center_north" fromLane="0" toLane="1" via=":center_32_0" dir="r" state="m"/>