<?xml version="1.0" encoding="UTF-8"?>

<!-- generated on 10/04/20 19:48:31 by Eclipse SUMO netedit Version 1.7.0
<configuration xmlns:xsi="http://www.w3.org/2001/XMLSchema-instance" xsi:noNamespaceSchemaLocation="http://sumo.dlr.de/xsd/netconvertConfiguration.xsd">

    <input>
        <sumo-net-file value="C:\Users\vladi\Desktop\DMAS\B08-genetictrafficbikelights\beta_version\intersection.net.xml"/>
    </input>

    <output>
        <output-file value="C:\Users\vladi\Desktop\DMAS\B08-genetictrafficbikelights\beta_version\intersection.net.xml"/>
    </output>

    <processing>
        <geometry.min-radius.fix.railways value="false"/>
        <geometry.max-grade.fix value="false"/>
        <offset.disable-normalization value="true"/>
        <lefthand value="false"/>
    </processing>

    <junctions>
        <no-turnarounds value="true"/>
        <junctions.corner-detail value="5"/>
        <junctions.limit-turn-speed value="5.5"/>
        <rectangular-lane-cut value="false"/>
    </junctions>

    <pedestrian>
        <walkingareas value="false"/>
    </pedestrian>

    <netedit>
        <route-files value="C:\Users\vladi\Desktop\DMAS\B08-genetictrafficbikelights\beta_version\intersection.rou.xml"/>
    </netedit>

    <report>
        <aggregate-warnings value="5"/>
    </report>

</configuration>
-->

<routes xmlns:xsi="http://www.w3.org/2001/XMLSchema-instance" xsi:noNamespaceSchemaLocation="http://sumo.dlr.de/xsd/routes_file.xsd">
    <vType id="DEFAULT_BIKETYPE" vClass="bicycle" color="green"/>
    <vType id="DEFAULT_VEHTYPE" vClass="passenger" color="0,175,255"/>
    <route edges="edge_west_center edge_center_east" color="yellow" id="route_0"/>
    <route edges="edge_west_center edge_center_north" color="yellow" id="route_1"/>
    <route edges="edge_north_center edge_center_east" color="yellow" id="route_2"/>
    <route edges="edge_north_center edge_center_south" color="yellow" id="route_3"/>
    <route edges="edge_south_center edge_center_north" color="yellow" id="route_4"/>
    <route edges="edge_east_center edge_center_south" color="yellow" id="route_5"/>
    <route edges="edge_south_center edge_center_west" color="yellow" id="route_6"/>
    <route edges="edge_north_center edge_center_west" color="yellow" id="route_7"/>
    <route edges="edge_east_center edge_center_north" color="yellow" id="route_8"/>
    <personFlow id="personFlow_1" begin="0.00" end="3600.00" number="1800"/>
    <flow id="flow_2" type="DEFAULT_BIKETYPE" begin="0.00" route="route_1" end="3600.00" number="1800"/>
    <flow id="flow_3" type="DEFAULT_BIKETYPE" begin="0.00" route="route_1" end="3600.00" number="1800"/>
    <flow id="flow_4" type="DEFAULT_BIKETYPE" begin="0.00" route="route_0" end="3600.00" number="1800"/>
    <flow id="flow_5" begin="0.00" route="route_2" end="3600.00" number="1800"/>
    <flow id="flow_6" begin="0.00" route="route_2" end="3600.00" number="1800"/>
    <flow id="flow_0" begin="0.00" end="3600.00" number="1800">
        <route edges="edge_east_center edge_center_west" color="cyan"/>
    </flow>
    <flow id="flow_1" begin="0.00" end="3600.00" number="1800">
        <route edges="edge_south_center edge_center_west" color="cyan"/>
    </flow>
</routes>
